Material: PyOptik / tabulated / test_tabulated_file
Optical constants. Example of tabulated test file
Comments: Room temperature
wavelength (um)	n	k
0.1879	0.94	1.337
0.1916	0.95	1.388
0.1953	0.97	1.44
