Material: PyOptik / tabulated / example_tabulated
Optical constants. Example Reference for Tabulated Data
Comments: This file contains sample tabulated data for demonstration purposes.
wavelength (um)	n	k
0.1879	0.94	1.337
0.1916	0.95	1.388
0.1953	0.97	1.44
0.1993	0.98	1.493
0.2033	0.99	1.55
